/*--------------------------------*- C++ -*----------------------------------*\
  =========                 |
  \\      /  F ield         | OpenFOAM: The Open Source CFD Toolbox
   \\    /   O peration     | Website:  https://openfoam.org
    \\  /    A nd           | Version:  8
     \\/     M anipulation  |
\*---------------------------------------------------------------------------*/
FoamFile
{
    version     2.0;
    format      ascii;
    class       dictionary;
    location    "system";
    object      fvSchemes;
}
// * * * * * * * * * * * * * * * * * * * * * * * * * * * * * * * * * * * * * //

ddtSchemes
{
    default          CrankNicolson 0.7;
}

gradSchemes
{
    default          cellLimited Gauss linear 1;
    grad(U)          cellLimited Gauss linear 1;
}

divSchemes
{
    default          none;
    div(phi,U)       Gauss linearUpwindV grad(U);
    div(phi,K)       Gauss linearUpwind default;
    div(phi,epsilon) Gauss linearUpwind default;
    div(phi,k)       Gauss linearUpwind default;
    div(phi,e)       Gauss linearUpwind default;
    div(phiv,p)      Gauss linearUpwind default;
    div(phi,nuTilda) Gauss linearUpwind default;
    div(((rho*nuEff)*dev2(T(grad(U))))) Gauss linear;
}

laplacianSchemes
{
    default          Gauss linear limited 1;
}

interpolationSchemes
{
    default          linear;
}

snGradSchemes
{
    default          limited 1;
}


// ************************************************************************* //
