/*--------------------------------*- C++ -*----------------------------------*\
  =========                 |
  \\      /  F ield         | OpenFOAM: The Open Source CFD Toolbox
   \\    /   O peration     | Website:  https://openfoam.org
    \\  /    A nd           | Version:  8
     \\/     M anipulation  |
\*---------------------------------------------------------------------------*/
FoamFile
{
    version     2.0;
    format      ascii;
    class       dictionary;
    object      surfaceFeaturesDict;
}
// * * * * * * * * * * * * * * * * * * * * * * * * * * * * * * * * * * * * * //

surfaces
(
    "inlet1.stl"
    "inlet2.stl"
    "outlet.stl"
    "shell.stl"
);

// Identify a feature when angle between faces < includedAngle
includedAngle       120;

// Write features to obj format for visualisation
writeObj            yes;

// ************************************************************************* //
