/*--------------------------------*- C++ -*----------------------------------*\
  =========                 |
  \\      /  F ield         | OpenFOAM: The Open Source CFD Toolbox
   \\    /   O peration     | Website:  https://openfoam.org
    \\  /    A nd           | Version:  8
     \\/     M anipulation  |
\*---------------------------------------------------------------------------*/
FoamFile
{
    version     2.0;
    format      ascii;
    class       dictionary;
    location    "system";
    object      fvSchemes;
}
// * * * * * * * * * * * * * * * * * * * * * * * * * * * * * * * * * * * * * //

ddtSchemes
{
    default         CrankNicolson 0;
}

gradSchemes
{
    default         cellLimited Gauss linear 1;
    grad(U)         cellLimited Gauss linear 1;
}

divSchemes
{
    default         none;
    div(phi,U)      Gauss linearUpwindV grad(U);
    div(phi,h)      Gauss linearUpwind default;
    div(phi,e)      Gauss linearUpwind default;
    div(phi,k)      Gauss linearUpwind default;
    div(phi,epsilon) Gauss linearUpwind default;
    div(phi,R)      Gauss linearUpwind default;
    div(phi,K)      Gauss linearUpwind default;
    div(phi,Ekp)    Gauss linearUpwind default;
    div(R)          Gauss linearUpwind default;
    div(phi,nuTilda) Gauss linearUpwind default;
    div(((rho*nuEff)*dev2(T(grad(U))))) Gauss linear;
}

laplacianSchemes
{
    default         Gauss linear limited 1;
}

interpolationSchemes
{
    default         linear;
}

snGradSchemes
{
    default         limited 1;
}


// ************************************************************************* //
