/*--------------------------------*- C++ -*----------------------------------*\
  =========                 |
  \\      /  F ield         | OpenFOAM: The Open Source CFD Toolbox
   \\    /   O peration     | Website:  https://openfoam.org
    \\  /    A nd           | Version:  8
     \\/     M anipulation  |
\*---------------------------------------------------------------------------*/
FoamFile
{
    version     2.0;
    format      ascii;
    class       dictionary;
    location    "system";
    object      fvSolution;
}
// * * * * * * * * * * * * * * * * * * * * * * * * * * * * * * * * * * * * * //

solvers
{
    rho
    {
        solver          GAMG;
        smoother        GaussSeidel;
        tolerance       1e-06;
        relTol          0.01;
    }

    rhoFinal
    {
        $rho;
        relTol          0;
    }

    p_rgh
    {
        solver          GAMG;
        smoother        GaussSeidel;
        tolerance       1e-8;
        relTol          0.01;
    }

    p_rghFinal
    {
        $p_rgh;
        relTol          0;
    }

    "(U|K|epsilon|k|e)"
    {
        solver          GAMG;
        smoother        GaussSeidel;
        tolerance       1e-06;
        relTol          0.1;
        nSweeps         1;
    }

    "(U|K|epsilon|k|e)Final"
    {
        $U;
        tolerance       1e-06;
        relTol          0;
    }
}

PIMPLE
{
    consistent          yes;
    momentumPredictor   yes;
    nOuterCorrectors    1;
    nCorrectors         2;
    nNonOrthogonalCorrectors 2;
    residualControl
    {
        "(p_rgh|U|K|epsilon|k|e)"   1e-5;
    }
}


// ************************************************************************* //
